Version 4
SHEET 1 3196 688
WIRE 416 -240 -320 -240
WIRE 80 -144 -304 -144
WIRE 96 -96 64 -96
WIRE 416 -96 416 -240
WIRE 416 -96 176 -96
WIRE 1488 -48 1072 -48
WIRE 1488 -32 1440 -32
WIRE 1920 -32 1552 -32
WIRE 2368 0 2304 0
WIRE -160 32 -192 32
WIRE -32 32 -96 32
WIRE 80 32 80 -144
WIRE 112 32 80 32
WIRE 416 48 416 -96
WIRE 416 48 176 48
WIRE 576 48 416 48
WIRE 1072 48 1072 -48
WIRE 1072 48 912 48
WIRE -32 64 -32 32
WIRE -16 64 -32 64
WIRE 64 64 64 -96
WIRE 112 64 64 64
WIRE 1440 64 1440 -32
WIRE 1536 64 1440 64
WIRE 1648 64 1600 64
WIRE 1920 80 1920 -32
WIRE 1984 80 1920 80
WIRE 2304 80 2304 0
WIRE 2304 80 2240 80
WIRE -400 96 -528 96
WIRE 1072 96 1072 48
WIRE -32 128 -32 64
WIRE 576 128 -32 128
WIRE 2416 128 2416 80
WIRE 2512 128 2416 128
WIRE 2560 128 2512 128
WIRE 2688 128 2640 128
WIRE 2976 128 2688 128
WIRE -320 144 -320 -240
WIRE -288 144 -320 144
WIRE -192 144 -192 32
WIRE -192 144 -208 144
WIRE -144 144 -192 144
WIRE -400 160 -400 96
WIRE -32 160 -32 128
WIRE -32 160 -80 160
WIRE 2688 160 2688 128
WIRE -144 176 -192 176
WIRE 1984 176 1920 176
WIRE 2304 176 2240 176
WIRE 2416 176 2416 128
WIRE 576 192 112 192
WIRE 2512 192 2512 128
WIRE 2560 192 2512 192
WIRE 1536 208 1440 208
WIRE 1680 208 1600 208
WIRE 1792 208 1744 208
WIRE -304 240 -304 -144
WIRE -304 240 -400 240
WIRE -192 240 -192 176
WIRE -192 240 -304 240
WIRE -32 256 -32 160
WIRE 16 256 -32 256
WIRE 112 256 112 192
WIRE 112 256 80 256
WIRE 208 256 112 256
WIRE 2304 256 2304 176
WIRE 2368 256 2304 256
WIRE 576 272 272 272
WIRE 2560 272 2560 192
WIRE 208 288 -288 288
WIRE 2048 304 2048 256
WIRE 2176 304 2176 256
WIRE 112 320 112 256
WIRE 240 320 240 304
WIRE 1440 320 1440 208
WIRE 1488 320 1440 320
WIRE 1488 336 1440 336
WIRE 1664 336 1552 336
WIRE 1920 336 1920 176
WIRE 1920 336 1728 336
WIRE 1072 352 1072 160
WIRE 1440 352 1440 336
WIRE 1440 352 1072 352
WIRE 2368 352 2368 256
WIRE 2512 352 2368 352
WIRE 112 432 112 400
WIRE -288 448 -288 288
WIRE -288 560 -288 528
WIRE 112 560 112 512
FLAG -400 320 0
FLAG 144 80 0
FLAG -112 192 0
FLAG 240 320 0
FLAG -192 240 Vcm
FLAG 576 48 VSQR
IOPIN 576 48 Out
FLAG 576 128 VRAMP
IOPIN 576 128 Out
FLAG -112 128 VDD
IOPIN -112 128 In
FLAG 144 16 VDD
IOPIN 144 16 In
FLAG 240 240 VDD
IOPIN 240 240 In
FLAG 576 272 VPWM
IOPIN 576 272 Out
FLAG 576 192 VRAMP_B
IOPIN 576 192 Out
FLAG -528 96 VDD
IOPIN -528 96 In
FLAG -960 -64 0
FLAG -960 -144 VDD
IOPIN -960 -144 In
FLAG -544 -64 0
FLAG -544 -144 VREF
IOPIN -544 -144 In
FLAG 112 560 0
FLAG -288 560 0
FLAG 1376 64 0
FLAG 1376 208 0
FLAG 2416 272 0
FLAG 2688 224 0
FLAG 2048 304 0
FLAG 2176 304 0
FLAG 1648 64 VGATE_N
FLAG 2976 128 VOUT
IOPIN 2976 128 Out
FLAG 2304 256 VGATE_N
FLAG 1792 208 VGATE_P
FLAG 2048 0 VDD
IOPIN 2048 0 In
FLAG 2176 0 VDD
IOPIN 2176 0 In
FLAG 2416 -16 VDD
IOPIN 2416 -16 In
FLAG 912 48 VPWM
IOPIN 912 48 Out
FLAG 2560 368 0
FLAG 2304 0 VGATE_P
SYMBOL res -416 144 R0
SYMATTR InstName Ra1
SYMATTR Value 1k
SYMBOL res -416 224 R0
SYMATTR InstName Rb1
SYMATTR Value 1k
SYMBOL res -192 128 R90
WINDOW 0 0 56 VBottom 2
WINDOW 3 32 56 VTop 2
SYMATTR InstName R1
SYMATTR Value 1.25e6
SYMBOL cap -96 16 R90
WINDOW 0 0 32 VBottom 2
WINDOW 3 32 32 VTop 2
SYMATTR InstName C1
SYMATTR Value 10pF
SYMBOL res 80 48 R90
WINDOW 0 3 89 VBottom 2
WINDOW 3 32 56 VTop 2
SYMATTR InstName R2
SYMATTR Value 3k
SYMBOL res 192 -112 R90
WINDOW 0 0 56 VBottom 2
WINDOW 3 32 56 VTop 2
SYMATTR InstName R3
SYMATTR Value 15k
SYMBOL cap 80 240 R90
WINDOW 0 0 32 VBottom 2
WINDOW 3 32 32 VTop 2
SYMATTR InstName Cbias1
SYMATTR Value 1n
SYMBOL res 96 304 R0
SYMATTR InstName Rbias1
SYMATTR Value 10k
SYMBOL voltage 112 416 R0
WINDOW 123 0 0 Left 0
WINDOW 39 0 0 Left 0
SYMATTR InstName V1
SYMATTR Value 2.5
SYMBOL Comparators\\LTC6752 144 -16 R0
SYMATTR InstName U1
SYMBOL Comparators\\LTC6752 240 208 R0
SYMATTR InstName U2
SYMBOL OpAmps\\UniversalOpamp2 -112 160 R0
SYMATTR InstName U3
SYMBOL voltage -960 -160 R0
WINDOW 123 0 0 Left 0
WINDOW 39 0 0 Left 0
SYMATTR InstName VDD1
SYMATTR Value {VDD}
SYMBOL voltage -544 -160 R0
WINDOW 123 0 0 Left 0
WINDOW 39 0 0 Left 0
SYMATTR InstName VDD2
SYMATTR Value {Vref}
SYMBOL voltage -288 432 R0
WINDOW 123 0 0 Left 0
WINDOW 39 0 0 Left 0
SYMATTR InstName V2
SYMATTR Value 2.5
SYMBOL cap 1440 48 R90
WINDOW 0 0 32 VBottom 2
WINDOW 3 32 32 VTop 2
SYMATTR InstName C2
SYMATTR Value 2.2n
SYMBOL cap 1440 192 R90
WINDOW 0 0 32 VBottom 2
WINDOW 3 32 32 VTop 2
SYMATTR InstName C3
SYMATTR Value 2.2n
SYMBOL PowerProducts\\LTC1693-1 2112 128 R0
SYMATTR InstName U4
SYMBOL pmos 2368 80 M180
SYMATTR InstName M1
SYMATTR Value AO6407
SYMBOL nmos 2368 176 R0
SYMATTR InstName M2
SYMATTR Value Si7336ADP
SYMBOL ind 2544 144 R270
WINDOW 0 32 56 VTop 2
WINDOW 3 5 56 VBottom 2
SYMATTR InstName L1
SYMATTR Value 10µ
SYMBOL cap 2672 160 R0
SYMATTR InstName C4
SYMATTR Value 47µ
SYMBOL Digital\\and 1520 -112 R0
WINDOW 3 16 52 Left 2
SYMATTR Value Vhigh = 5
SYMATTR InstName A1
SYMBOL Digital\\and 1520 256 R0
WINDOW 3 16 52 Left 2
SYMATTR Value Vhigh=5
SYMATTR InstName A2
SYMBOL Digital\\inv 1664 272 R0
WINDOW 3 8 60 Left 2
SYMATTR Value Vhigh=5
SYMATTR InstName A3
SYMBOL Digital\\inv 1600 0 M0
WINDOW 3 8 60 Left 2
SYMATTR Value Vhigh=5
SYMATTR InstName A4
SYMBOL Digital\\inv 1600 144 M0
WINDOW 3 8 60 Left 2
SYMATTR Value Vhigh=5
SYMATTR InstName A5
SYMBOL Digital\\inv 1744 144 M0
WINDOW 3 8 60 Left 2
SYMATTR Value Vhigh=5
SYMATTR InstName A6
SYMBOL Digital\\inv 1008 96 M90
WINDOW 3 -16 120 Left 2
SYMATTR Value Vhigh=5
SYMATTR InstName A7
SYMBOL nmos 2512 272 R0
SYMATTR InstName M3
SYMATTR Value Si7336ADP
TEXT -568 344 Left 2 !.tran 0 0.1s 0 uic
TEXT 376 640 Left 2 !.param VDD 5
TEXT 376 672 Left 2 !.param Vref 200m
TEXT -376 488 Left 2 ;Vctrl
LINE Normal 2896 336 2896 -48 2
RECTANGLE Normal 248 604 -426 409 2
RECTANGLE Normal 965 338 512 -32 2
