Version 4
SHEET 1 4484 680
WIRE 704 -1168 -32 -1168
WIRE 368 -1072 -16 -1072
WIRE 384 -1024 352 -1024
WIRE 704 -1024 704 -1168
WIRE 704 -1024 464 -1024
WIRE 1776 -976 1360 -976
WIRE 1776 -960 1728 -960
WIRE 2208 -960 1840 -960
WIRE 2656 -928 2592 -928
WIRE 128 -896 96 -896
WIRE 256 -896 192 -896
WIRE 368 -896 368 -1072
WIRE 400 -896 368 -896
WIRE 704 -880 704 -1024
WIRE 704 -880 464 -880
WIRE 864 -880 704 -880
WIRE 1360 -880 1360 -976
WIRE 1360 -880 1200 -880
WIRE 256 -864 256 -896
WIRE 272 -864 256 -864
WIRE 352 -864 352 -1024
WIRE 400 -864 352 -864
WIRE 1728 -864 1728 -960
WIRE 1824 -864 1728 -864
WIRE 1936 -864 1888 -864
WIRE 2208 -848 2208 -960
WIRE 2272 -848 2208 -848
WIRE 2592 -848 2592 -928
WIRE 2592 -848 2528 -848
WIRE -112 -832 -656 -832
WIRE 1360 -832 1360 -880
WIRE 256 -800 256 -864
WIRE 864 -800 256 -800
WIRE 2704 -800 2704 -848
WIRE 2800 -800 2704 -800
WIRE 2848 -800 2800 -800
WIRE 2976 -800 2928 -800
WIRE 3264 -800 2976 -800
WIRE 3680 -800 3472 -800
WIRE 4144 -800 4016 -800
WIRE 4256 -800 4208 -800
WIRE -32 -784 -32 -1168
WIRE 0 -784 -32 -784
WIRE 96 -784 96 -896
WIRE 96 -784 80 -784
WIRE 144 -784 96 -784
WIRE -112 -768 -112 -832
WIRE 256 -768 256 -800
WIRE 256 -768 208 -768
WIRE 2976 -768 2976 -800
WIRE 3680 -768 3680 -800
WIRE 144 -752 96 -752
WIRE 2272 -752 2208 -752
WIRE 2592 -752 2528 -752
WIRE 2704 -752 2704 -800
WIRE 864 -736 400 -736
WIRE 2800 -736 2800 -800
WIRE 2848 -736 2800 -736
WIRE 1824 -720 1728 -720
WIRE 1968 -720 1888 -720
WIRE 2080 -720 2032 -720
WIRE -16 -688 -16 -1072
WIRE -16 -688 -112 -688
WIRE 96 -688 96 -752
WIRE 96 -688 -16 -688
WIRE 256 -672 256 -768
WIRE 304 -672 256 -672
WIRE 400 -672 400 -736
WIRE 400 -672 368 -672
WIRE 496 -672 400 -672
WIRE 2592 -672 2592 -752
WIRE 2656 -672 2592 -672
WIRE 864 -656 560 -656
WIRE 2848 -656 2848 -736
WIRE 496 -640 -640 -640
WIRE 3680 -640 3680 -704
WIRE 3936 -640 3680 -640
WIRE 4016 -640 4016 -800
WIRE 4144 -640 4016 -640
WIRE 2336 -624 2336 -672
WIRE 2464 -624 2464 -672
WIRE 4256 -624 4256 -800
WIRE 4256 -624 4208 -624
WIRE 4352 -624 4256 -624
WIRE 400 -608 400 -672
WIRE 528 -608 528 -624
WIRE 1728 -608 1728 -720
WIRE 1776 -608 1728 -608
WIRE 3680 -608 3680 -640
WIRE 1776 -592 1728 -592
WIRE 1952 -592 1840 -592
WIRE 2208 -592 2208 -752
WIRE 2208 -592 2016 -592
WIRE 1360 -576 1360 -768
WIRE 1728 -576 1728 -592
WIRE 1728 -576 1360 -576
WIRE 2656 -576 2656 -672
WIRE 2800 -576 2656 -576
WIRE 400 -496 400 -528
WIRE 3680 -480 3680 -528
WIRE 400 -368 400 -416
FLAG -112 -608 0
FLAG 432 -848 0
FLAG 176 -736 0
FLAG 528 -608 0
FLAG 96 -688 Vcm
FLAG 864 -880 VSQR
IOPIN 864 -880 Out
FLAG 864 -800 VRAMP
IOPIN 864 -800 Out
FLAG 176 -800 VDD
IOPIN 176 -800 In
FLAG 432 -912 VDD
IOPIN 432 -912 In
FLAG 528 -688 VDD
IOPIN 528 -688 In
FLAG 864 -656 VPWM
IOPIN 864 -656 Out
FLAG 864 -736 VRAMP_B
IOPIN 864 -736 Out
FLAG -656 -832 VDD
IOPIN -656 -832 In
FLAG -672 -992 0
FLAG -672 -1072 VDD
IOPIN -672 -1072 In
FLAG -496 -992 0
FLAG -496 -1072 VREF
IOPIN -496 -1072 In
FLAG 400 -368 0
FLAG 1664 -864 0
FLAG 1664 -720 0
FLAG 2704 -656 0
FLAG 2976 -704 0
FLAG 2336 -624 0
FLAG 2464 -624 0
FLAG 1936 -864 VGATE_N
FLAG 3264 -800 VOUT
IOPIN 3264 -800 Out
FLAG 2592 -672 VGATE_N
FLAG 2080 -720 VGATE_P
FLAG 2336 -928 VDD
IOPIN 2336 -928 In
FLAG 2464 -928 VDD
IOPIN 2464 -928 In
FLAG 2704 -944 VDD
IOPIN 2704 -944 In
FLAG 1200 -880 VPWM
IOPIN 1200 -880 Out
FLAG 2848 -560 0
FLAG 2592 -928 VGATE_P
FLAG 3680 -480 0
FLAG 4352 -624 VCTRL
IOPIN 4352 -624 Out
FLAG 4176 -656 VDD
IOPIN 4176 -656 In
FLAG 4144 -608 VREF
IOPIN 4144 -608 In
FLAG 3472 -800 VOUT
IOPIN 3472 -800 In
FLAG 4176 -592 0
FLAG -640 -640 VCTRL
IOPIN -640 -640 In
SYMBOL res -128 -784 R0
SYMATTR InstName Ra1
SYMATTR Value 1k
SYMBOL res -128 -704 R0
SYMATTR InstName Rb1
SYMATTR Value 1k
SYMBOL res 96 -800 R90
WINDOW 0 0 56 VBottom 2
WINDOW 3 32 56 VTop 2
SYMATTR InstName R1
SYMATTR Value 1.25e6
SYMBOL cap 192 -912 R90
WINDOW 0 0 32 VBottom 2
WINDOW 3 32 32 VTop 2
SYMATTR InstName C1
SYMATTR Value 10pF
SYMBOL res 368 -880 R90
WINDOW 0 3 89 VBottom 2
WINDOW 3 32 56 VTop 2
SYMATTR InstName R2
SYMATTR Value 3k
SYMBOL res 480 -1040 R90
WINDOW 0 0 56 VBottom 2
WINDOW 3 32 56 VTop 2
SYMATTR InstName R3
SYMATTR Value 15k
SYMBOL cap 368 -688 R90
WINDOW 0 0 32 VBottom 2
WINDOW 3 32 32 VTop 2
SYMATTR InstName Cbias1
SYMATTR Value 1n
SYMBOL res 384 -624 R0
SYMATTR InstName Rbias1
SYMATTR Value 10k
SYMBOL voltage 400 -512 R0
WINDOW 123 0 0 Left 0
WINDOW 39 0 0 Left 0
SYMATTR InstName V1
SYMATTR Value 2.5
SYMBOL Comparators\\LTC6752 432 -944 R0
SYMATTR InstName U1
SYMBOL Comparators\\LTC6752 528 -720 R0
SYMATTR InstName U2
SYMBOL OpAmps\\UniversalOpamp2 176 -768 R0
SYMATTR InstName U3
SYMBOL voltage -672 -1088 R0
WINDOW 123 0 0 Left 0
WINDOW 39 0 0 Left 0
SYMATTR InstName VDD1
SYMATTR Value {VDD}
SYMBOL voltage -496 -1088 R0
WINDOW 123 0 0 Left 0
WINDOW 39 0 0 Left 0
SYMATTR InstName VDD2
SYMATTR Value {Vref}
SYMBOL cap 1728 -880 R90
WINDOW 0 0 32 VBottom 2
WINDOW 3 32 32 VTop 2
SYMATTR InstName C2
SYMATTR Value 2.2n
SYMBOL cap 1728 -736 R90
WINDOW 0 0 32 VBottom 2
WINDOW 3 32 32 VTop 2
SYMATTR InstName C3
SYMATTR Value 2.2n
SYMBOL PowerProducts\\LTC1693-1 2400 -800 R0
SYMATTR InstName U4
SYMBOL pmos 2656 -848 M180
SYMATTR InstName M1
SYMATTR Value AO6407
SYMBOL nmos 2656 -752 R0
SYMATTR InstName M2
SYMATTR Value Si7336ADP
SYMBOL ind 2832 -784 R270
WINDOW 0 32 56 VTop 2
WINDOW 3 5 56 VBottom 2
SYMATTR InstName L1
SYMATTR Value 10µ
SYMBOL cap 2960 -768 R0
SYMATTR InstName C4
SYMATTR Value 47µ
SYMBOL Digital\\and 1808 -1040 R0
WINDOW 3 16 52 Left 2
SYMATTR Value Vhigh = 5
SYMATTR InstName A1
SYMBOL Digital\\and 1808 -672 R0
WINDOW 3 16 52 Left 2
SYMATTR Value Vhigh=5
SYMATTR InstName A2
SYMBOL Digital\\inv 1952 -656 R0
WINDOW 3 8 60 Left 2
SYMATTR Value Vhigh=5
SYMATTR InstName A3
SYMBOL Digital\\inv 1888 -928 M0
WINDOW 3 8 60 Left 2
SYMATTR Value Vhigh=5
SYMATTR InstName A4
SYMBOL Digital\\inv 1888 -784 M0
WINDOW 3 8 60 Left 2
SYMATTR Value Vhigh=5
SYMATTR InstName A5
SYMBOL Digital\\inv 2032 -784 M0
WINDOW 3 8 60 Left 2
SYMATTR Value Vhigh=5
SYMATTR InstName A6
SYMBOL Digital\\inv 1296 -832 M90
WINDOW 3 -16 120 Left 2
SYMATTR Value Vhigh=5
SYMATTR InstName A7
SYMBOL nmos 2800 -656 R0
SYMATTR InstName M3
SYMATTR Value Si7336ADP
SYMBOL OpAmps\\UniversalOpamp2 4176 -624 R0
SYMATTR InstName U5
SYMBOL cap 4144 -816 M90
WINDOW 0 0 32 VBottom 2
WINDOW 3 32 32 VTop 2
SYMATTR InstName C5
SYMATTR Value 47n
SYMBOL res 3920 -656 M90
WINDOW 0 0 56 VBottom 2
WINDOW 3 32 56 VTop 2
SYMATTR InstName R4
SYMATTR Value 10k
SYMBOL res 3664 -512 M180
WINDOW 0 36 76 Left 2
WINDOW 3 36 40 Left 2
SYMATTR InstName R_sense1
SYMATTR Value 5
SYMBOL LED 3696 -768 M0
SYMATTR InstName D1
TEXT -280 -584 Left 2 !.tran 0 0.1s 0 uic
TEXT 664 -288 Left 2 !.param VDD 5
TEXT 664 -256 Left 2 !.param Vref 200m
RECTANGLE Normal 1253 -590 800 -960 2
RECTANGLE Normal 3536 -736 3200 -864 2
RECTANGLE Normal 512 -352 288 -528 2
RECTANGLE Normal -784 -560 -320 -1200 2
RECTANGLE Normal 4464 -576 4320 -688 2
