Version 4
SHEET 1 1752 892
WIRE 704 -144 416 -144
WIRE 416 -96 416 -144
WIRE 368 -80 272 -80
WIRE 80 64 80 48
WIRE 80 160 80 144
WIRE 704 256 704 -144
WIRE 800 256 784 256
WIRE 896 256 880 256
WIRE 944 256 896 256
WIRE 1312 256 944 256
WIRE 896 320 816 320
WIRE 944 352 944 336
WIRE 1040 352 944 352
WIRE 1312 352 1104 352
WIRE 944 368 944 352
WIRE 272 416 272 -80
WIRE 336 416 272 416
WIRE 432 416 336 416
WIRE 528 416 496 416
WIRE 944 432 624 432
WIRE 944 464 944 432
WIRE 528 512 528 416
WIRE 528 512 432 512
WIRE 624 512 528 512
WIRE 336 528 336 416
WIRE 368 528 336 528
WIRE 944 544 944 528
FLAG 944 544 0
FLAG 80 48 VREF
IOPIN 80 48 Out
FLAG 80 160 0
FLAG 1312 432 0
FLAG 816 320 0
FLAG 368 -32 0
FLAG 416 -16 0
FLAG 1312 256 Vout
IOPIN 1312 256 Out
FLAG 432 544 VREF
IOPIN 432 544 Out
SYMBOL res2 928 464 R0
WINDOW 0 36 16 Left 1
WINDOW 3 36 56 Left 0
SYMATTR InstName RSENSE
SYMATTR Value 5
SYMBOL voltage 80 48 R0
WINDOW 0 24 16 Invisible 2
WINDOW 3 24 96 Invisible 1
WINDOW 123 0 0 Left 0
WINDOW 39 0 0 Left 0
SYMATTR InstName VREF
SYMATTR Value 250m
SYMBOL voltage 1312 336 R0
WINDOW 123 46 57 Left 2
WINDOW 0 45 24 Left 2
WINDOW 39 0 0 Left 0
SYMATTR Value2 AC 1 0
SYMATTR InstName V1
SYMATTR Value ""
SYMBOL cap 880 256 R0
WINDOW 0 34 1 Top 1
WINDOW 3 24 56 Left 0
SYMATTR InstName C2
SYMATTR Value 47µ
SYMBOL ind 800 272 M270
WINDOW 0 32 56 VTop 1
WINDOW 3 5 56 VBottom 0
SYMATTR InstName L2
SYMATTR Value 100µ
SYMATTR SpiceLine Rser=1
SYMBOL cap 496 400 R90
WINDOW 0 0 32 VBottom 1
WINDOW 3 32 32 VTop 0
SYMATTR InstName C3
SYMATTR Value 25n
SYMBOL e 416 -112 R0
SYMATTR InstName E1
SYMATTR Value 5
SYMBOL res 896 240 R90
WINDOW 0 0 56 VBottom 2
WINDOW 3 32 56 VTop 2
SYMATTR InstName R4
SYMATTR Value 0.1
SYMBOL res 608 416 R0
SYMATTR InstName R5
SYMATTR Value 50k
SYMBOL ind 928 240 R0
SYMATTR InstName L1
SYMATTR Value 1Meg
SYMBOL cap 1104 336 R90
WINDOW 0 0 32 VBottom 2
WINDOW 3 32 32 VTop 2
SYMATTR InstName C1
SYMATTR Value 1Meg
SYMBOL Contrib\\Wurth\\Optoelectronics\\SignalLED\\Mono-color\\WL-TMRW 944 416 R0
SYMATTR InstName D1
SYMBOL OpAmps\\UniversalOpAmp 400 528 M0
SYMATTR InstName U1
TEXT 32 232 Left 1 !.ac dec 100 1 1G
RECTANGLE Normal 664 208 860 352 2
RECTANGLE Normal 688 592 304 368 2
RECTANGLE Normal 1488 528 1248 144 2
