Version 4
SHEET 1 10540 1504
WIRE 5760 -800 5376 -800
WIRE 6384 -800 5760 -800
WIRE 4720 -752 4048 -752
WIRE 3584 -624 3408 -624
WIRE 3840 -624 3584 -624
WIRE 6384 -608 6384 -800
WIRE 6608 -608 6384 -608
WIRE 4368 -592 4272 -592
WIRE 5840 -592 5456 -592
WIRE 4048 -576 4048 -752
WIRE 4160 -576 4048 -576
WIRE 4464 -560 4272 -560
WIRE 5136 -560 5088 -560
WIRE 3840 -544 3840 -624
WIRE 4160 -544 3840 -544
WIRE 5760 -496 5760 -800
WIRE 6608 -496 5984 -496
WIRE 5456 -480 5456 -592
WIRE 5552 -480 5456 -480
WIRE 3584 -448 3584 -624
WIRE 3712 -448 3584 -448
WIRE 4368 -448 4368 -592
WIRE 4368 -448 4080 -448
WIRE 5088 -448 5088 -560
WIRE 5216 -448 5088 -448
WIRE 5088 -400 5088 -448
WIRE 5216 -400 5216 -448
WIRE 3872 -384 3776 -384
WIRE 4080 -384 4080 -448
WIRE 4080 -384 3936 -384
WIRE 4160 -384 4080 -384
WIRE 4464 -384 4272 -384
WIRE 4160 -352 4064 -352
WIRE 4720 -320 4720 -752
WIRE 5024 -320 4720 -320
WIRE 5376 -320 5376 -800
WIRE 5376 -320 5280 -320
WIRE 5840 -320 5840 -592
WIRE 5984 -320 5984 -496
WIRE 5984 -320 5840 -320
WIRE 6160 -320 5984 -320
WIRE 6432 -320 6240 -320
WIRE 6608 -320 6432 -320
WIRE 4064 -288 4064 -352
WIRE 4064 -288 3968 -288
WIRE 2080 -272 2080 -304
WIRE 2176 -272 2080 -272
WIRE 3584 -240 3584 -320
WIRE 5024 -224 4720 -224
WIRE 5376 -224 5280 -224
WIRE 5984 -224 5984 -320
WIRE 5984 -224 5712 -224
WIRE 6432 -224 6432 -320
WIRE 2080 -208 2080 -272
WIRE 4560 -176 4304 -176
WIRE 4608 -176 4560 -176
WIRE 6624 -176 6544 -176
WIRE 2272 -160 2192 -160
WIRE 6432 -96 6432 -160
WIRE 2080 -80 2080 -128
WIRE 2192 -80 2192 -160
WIRE 2192 -80 2080 -80
WIRE 3616 -64 3616 -128
WIRE 3712 -64 3712 -448
WIRE 3712 -64 3616 -64
WIRE 3872 -64 3776 -64
WIRE 3968 -64 3936 -64
WIRE 4160 -64 3968 -64
WIRE 4304 -64 4304 -176
WIRE 4304 -64 4272 -64
WIRE 4400 -64 4320 -64
WIRE 4560 -64 4560 -176
WIRE 4560 -64 4512 -64
WIRE 2080 -48 2080 -80
WIRE 6064 -48 5856 -48
WIRE 4160 -32 4064 -32
WIRE 4400 -32 4352 -32
WIRE 5712 -32 5712 -224
WIRE 5792 -32 5712 -32
WIRE 2192 0 2192 -80
WIRE 2272 0 2192 0
WIRE 4064 32 4064 -32
WIRE 4320 32 4320 -64
WIRE 4320 32 4064 32
WIRE 4352 48 4352 -32
WIRE 4480 48 4352 48
WIRE 2080 96 2080 32
WIRE 4480 96 4480 48
WIRE 4480 96 4448 96
WIRE 4416 160 4064 160
WIRE 4720 160 4720 -224
WIRE 4720 160 4464 160
WIRE 4368 224 4272 224
WIRE 4464 224 4464 160
WIRE 4480 224 4464 224
WIRE 4720 224 4592 224
WIRE 4064 240 4064 160
WIRE 4160 240 4064 240
WIRE 4336 256 4272 256
WIRE 4416 256 4416 160
WIRE 4480 256 4416 256
WIRE 4720 256 4720 224
WIRE 4800 256 4720 256
WIRE 5376 256 5376 -224
WIRE 6064 256 6064 -48
WIRE 6064 256 5376 256
WIRE 6544 256 6544 -176
WIRE 6544 256 6064 256
WIRE 3968 272 3968 -64
WIRE 4160 272 3968 272
WIRE 4336 368 4336 256
WIRE 4720 368 4720 256
WIRE 4720 368 4336 368
WIRE 3584 432 3584 -128
WIRE 4368 432 4368 224
WIRE 4368 432 3584 432
FLAG 3408 -624 Vpwm
IOPIN 3408 -624 In
FLAG 3776 -384 0
FLAG 3776 -64 0
FLAG 3968 -288 Vgate_n
IOPIN 3968 -288 In
FLAG 4448 96 Vgate_p
IOPIN 4448 96 In
FLAG 6432 -96 0
FLAG 4464 -560 Vdd
IOPIN 4464 -560 In
FLAG 4464 -384 Vdd
IOPIN 4464 -384 In
FLAG 3584 -320 Vdd
IOPIN 3584 -320 In
FLAG 4608 -176 Vdd
IOPIN 4608 -176 In
FLAG 4800 256 Vdd
IOPIN 4800 256 In
FLAG 5136 -560 Vdd
IOPIN 5136 -560 In
FLAG 5760 -464 Vdd
IOPIN 5760 -464 In
FLAG 5856 -16 0
FLAG 6608 -608 Vgate_p
IOPIN 6608 -608 Out
FLAG 6624 -176 Vgate_n
IOPIN 6624 -176 Out
FLAG 6608 -496 Vsw
IOPIN 6608 -496 Out
FLAG 6608 -320 Vout
IOPIN 6608 -320 Out
FLAG 4272 -352 0
FLAG 4272 -528 0
FLAG 4272 -32 0
FLAG 4512 -32 0
FLAG 4272 288 0
FLAG 4592 256 0
FLAG 3616 -240 0
FLAG 5088 -144 0
FLAG 5216 -144 0
FLAG 2080 -384 0
FLAG 2080 96 0
FLAG 2080 368 0
FLAG 2080 288 Vctrl
IOPIN 2080 288 Out
FLAG 2272 -160 Vcm
IOPIN 2272 -160 Out
FLAG 2272 0 Vbias
IOPIN 2272 0 Out
FLAG 2368 -416 Vcm
IOPIN 2368 -416 In
FLAG 2368 -384 Vbias
IOPIN 2368 -384 In
FLAG 2608 -448 Vpwm
IOPIN 2608 -448 Out
FLAG 2176 -272 Vdd
IOPIN 2176 -272 Out
FLAG 2368 -352 Vctrl
IOPIN 2368 -352 In
FLAG 2368 -448 Vdd
IOPIN 2368 -448 In
SYMBOL AutoGenerated\\SN74AHC00 4208 -560 R0
SYMATTR InstName U12
SYMBOL AutoGenerated\\SN74AHC00 4208 256 R0
SYMATTR InstName U13
SYMBOL AutoGenerated\\CD4069UB 4208 -368 R0
SYMATTR InstName U14
SYMBOL AutoGenerated\\CD4069UB 4208 -48 R0
SYMATTR InstName U15
SYMBOL AutoGenerated\\CD4069UB 4448 -48 R0
SYMATTR InstName U16
SYMBOL AutoGenerated\\CD4069UB 4528 240 R0
SYMATTR InstName U17
SYMBOL cap 3936 -400 R90
WINDOW 0 0 32 VBottom 2
WINDOW 3 32 32 VTop 2
SYMATTR InstName C4
SYMATTR Value 1n
SYMBOL cap 3936 -80 R90
WINDOW 0 0 32 VBottom 2
WINDOW 3 32 32 VTop 2
SYMATTR InstName C5
SYMATTR Value 1n
SYMBOL AutoGenerated\\CD4069UB 3600 -176 R270
SYMATTR InstName U18
SYMBOL PowerProducts\\LTC1693-1 5152 -272 R0
SYMATTR InstName U19
SYMBOL ind 6144 -304 R270
WINDOW 0 32 56 VTop 2
WINDOW 3 5 56 VBottom 2
SYMATTR InstName L2
SYMATTR Value 100µ
SYMBOL cap 6416 -224 R0
SYMATTR InstName C6
SYMATTR Value 47µ
SYMBOL AutoGenerated\\ntd3055l104 5824 -32 R0
SYMATTR InstName U21
SYMBOL AutoGenerated\\IPP45P03P4L-11_L0 5648 -480 R0
SYMATTR InstName U11
SYMBOL voltage 2080 -288 R180
WINDOW 0 24 96 Left 2
WINDOW 3 24 16 Left 2
WINDOW 123 0 0 Left 0
WINDOW 39 0 0 Left 0
SYMATTR InstName V1
SYMATTR Value 5
SYMBOL res 2064 -224 R0
SYMATTR InstName Rtemp1
SYMATTR Value 1
SYMBOL res 2064 -64 R0
SYMATTR InstName Rtemp2
SYMATTR Value 1
SYMBOL voltage 2080 272 R0
WINDOW 123 0 0 Left 0
WINDOW 39 0 0 Left 0
SYMATTR InstName Vcontrol1
SYMATTR Value 2.5
SYMBOL PWM-NEW 2448 -416 R0
SYMATTR InstName X1
TEXT -1320 488 Left 2 !.tran 0.01
TEXT 3984 576 Left 2 ;Non-Overlap Clock Generator
TEXT 6216 0 Left 2 ;Low-Pass Filter
TEXT 5080 -88 Left 2 ;Gate Driver
TEXT 2832 -40 Left 2 !;.step param c list 1n 3.3n
TEXT 2848 40 Left 2 !.inc 74hc.lib
RECTANGLE Normal 4912 512 3488 -896 2
RECTANGLE Normal 6512 -48 6080 -416 2
